Circuit: * D:\Masaüstü Dosyalarý\Computer and Software\1- LTspice\ödev 3\ödev 3.asc

Direct Newton iteration for .op point succeeded.

Date: Wed Dec 16 19:24:00 2015
Total elapsed time: 0.037 seconds.

tnom = 27
temp = 27
method = modified trap
totiter = 2086
traniter = 2082
tranpoints = 1042
accept = 1042
rejected = 0
matrix size = 9
fillins = 1
solver = Normal
Matrix Compiler1: 386 bytes object code size  0.2/0.1/[0.1]
Matrix Compiler2: off  [0.1]/0.2/0.2


