Circuit: * D:\Computer Engineering\z- Other\School, Internships\2. Year\Term 1\Devreler ve Sistemler\4- Electric Programs\z- School\homework 1\hw1.asc

.OP point found by inspection.

Date: Mon Nov 05 23:37:47 2018
Total elapsed time: 0.047 seconds.

tnom = 27
temp = 27
method = trap
totiter = 20
traniter = 0
tranpoints = 0
accept = 0
rejected = 0
matrix size = 3
fillins = 0
solver = Normal
Matrix Compiler1: 50 bytes object code size
Matrix Compiler2: 175 bytes object code size

