Circuit: * D:\Computer Engineering\z- Other\School, Internships\2. Year\Term 1\Devreler ve Sistemler\4- Electric Programs\- TestCircuit\Draft3.asc

Direct Newton iteration for .op point succeeded.

Date: Sat Jan 19 20:22:51 2019
Total elapsed time: 0.096 seconds.

tnom = 27
temp = 27
method = modified trap
totiter = 2103
traniter = 2100
tranpoints = 1051
accept = 1051
rejected = 0
matrix size = 1
fillins = 0
solver = Normal
Matrix Compiler1: off  0.1/0.0/[0.0]
Matrix Compiler2:       4 opcodes  0.0/[0.0]/0.1


