Circuit: * C:\Computer Engineering\z- Other\School, Internships\other\2. Year\Term 1\Devreler ve Sistemler\4- Programs\- TestCircuit\TestCircuit.asc

Fatal Error: Voltage source V1 and voltage source V2 are paralleled making an over-defined circuit matrix.
You will need to correct the circuit or add some series resistance.
