Circuit: * D:\Computer Engineering\z- Other\School, Internships\2. Year\Term 1\Devreler ve Sistemler\4- Electric Programs\serial\serial.asc

Direct Newton iteration for .op point succeeded.

Date: Fri Jan 18 13:43:15 2019
Total elapsed time: 0.068 seconds.

tnom = 27
temp = 27
method = modified trap
totiter = 2091
traniter = 2088
tranpoints = 1045
accept = 1045
rejected = 0
matrix size = 3
fillins = 0
solver = Normal
Matrix Compiler1: 86 bytes object code size  0.0/0.0/[0.0]
Matrix Compiler2: off  [0.0]/0.0/0.0


