Circuit: * D:\Computer Engineering\z- Other\School, Internships\2. Year\Term 1\Devreler ve Sistemler\4- Electric Programs\z- School\exam question 2\exam question 2.asc

Direct Newton iteration for .op point succeeded.

Date: Fri Jan 18 13:45:33 2019
Total elapsed time: 0.141 seconds.

tnom = 27
temp = 27
method = modified trap
totiter = 2085
traniter = 2082
tranpoints = 1042
accept = 1042
rejected = 0
matrix size = 3
fillins = 0
solver = Normal
Matrix Compiler1:       3 opcodes  0.0/[0.0]/0.0
Matrix Compiler2: 175 bytes object code size  0.1/0.1/[0.1]


